{
   "completed_at" : "20180801T130133Z",
   "completed_status" : "Success",
   "created_at" : "20180323T142009Z",
   "current_step" : 0,
   "eplusout_err" : "Program Version,EnergyPlus, Version 8.9.0-eba93e8e1b, YMD=2018.08.01 15:00,\n   ************* Beginning Zone Sizing Calculations\n   ** Warning ** Weather file location will be used rather than entered (IDF) Location object.\n   **   ~~~   ** ..Location object=BERLIN&#44 BERLIN\n   **   ~~~   ** ..Weather File Location=BERLIN - DEU IWEC Data WMO#=103840\n   **   ~~~   ** ..due to location differences, Latitude difference=[4.85E-002] degrees, Longitude difference=[1.94E-002] degrees.\n   **   ~~~   ** ..Time Zone difference=[0.0] hour(s), Elevation difference=[36.17] percent, [13.01] meters.\n   ** Warning ** ProcessScheduleInput: Schedule:Constant=\"ALWAYS ON DISCRETE\", Blank Schedule Type Limits Name input -- will not be validated.\n   ** Warning ** ProcessScheduleInput: Schedule:Constant=\"ALWAYS OFF DISCRETE\", Blank Schedule Type Limits Name input -- will not be validated.\n   ** Warning ** ProcessScheduleInput: Schedule:Constant=\"ALWAYS ON CONTINUOUS\", Blank Schedule Type Limits Name input -- will not be validated.\n   ** Warning ** GetHTSurfaceData: Surfaces with interface to Ground found but no \"Ground Temperatures\" were input.\n   **   ~~~   ** Found first in surface=SURFACE 101\n   **   ~~~   ** Defaults, constant throughout the year of (18.0) will be used.\n   ** Warning ** GetSurfaceData: WindowProperty:ShadingControl: \"SHADING CONTROL 1\" is not referenced by any window.\n   ** Warning ** CheckUsedConstructions: There are 19 nominally unused constructions in input.\n   **   ~~~   ** For explicit details on each unused construction, use Output:Diagnostics,DisplayExtraWarnings;\n   ** Warning ** DetermineShadowingCombinations: There are 8 surfaces which are receiving surfaces and are non-convex.\n   **   ~~~   ** ...Shadowing values may be inaccurate. Check .shd report file for more surface shading details\n   **   ~~~   ** ...Add Output:Diagnostics,DisplayExtraWarnings; to see individual warnings for each surface.\n   ** Warning ** Calculated design cooling load for zone=THERMAL CO-WORKING is zero.\n   **   ~~~   ** Check Sizing:Zone and ZoneControl:Thermostat inputs.\n   ** Warning ** Calculated design cooling load for zone=THERMAL CORRIDOR is zero.\n   **   ~~~   ** Check Sizing:Zone and ZoneControl:Thermostat inputs.\n   ** Warning ** Calculated design cooling load for zone=THERMAL ELEVATOR is zero.\n   **   ~~~   ** Check Sizing:Zone and ZoneControl:Thermostat inputs.\n   ** Warning ** Calculated design cooling load for zone=THERMAL ENTRANCE is zero.\n   **   ~~~   ** Check Sizing:Zone and ZoneControl:Thermostat inputs.\n   ** Warning ** Calculated design cooling load for zone=THERMAL LAB NORTH is zero.\n   **   ~~~   ** Check Sizing:Zone and ZoneControl:Thermostat inputs.\n   ** Warning ** Calculated design heating load for zone=THERMAL LAB NORTH is zero.\n   **   ~~~   ** Check Sizing:Zone and ZoneControl:Thermostat inputs.\n   ** Warning ** Calculated design cooling load for zone=THERMAL LAB SOUTH is zero.\n   **   ~~~   ** Check Sizing:Zone and ZoneControl:Thermostat inputs.\n   ** Warning ** Calculated design cooling load for zone=THERMAL MEETING ROOM NORTH is zero.\n   **   ~~~   ** Check Sizing:Zone and ZoneControl:Thermostat inputs.\n   ** Warning ** Calculated design cooling load for zone=THERMAL MEETING ROOM SOUTH is zero.\n   **   ~~~   ** Check Sizing:Zone and ZoneControl:Thermostat inputs.\n   ** Warning ** Calculated design cooling load for zone=THERMAL NERD ROOM 1 is zero.\n   **   ~~~   ** Check Sizing:Zone and ZoneControl:Thermostat inputs.\n   ** Warning ** Calculated design cooling load for zone=THERMAL NERD ROOM 2 is zero.\n   **   ~~~   ** Check Sizing:Zone and ZoneControl:Thermostat inputs.\n   ** Warning ** Calculated design cooling load for zone=THERMAL RESTROOM M is zero.\n   **   ~~~   ** Check Sizing:Zone and ZoneControl:Thermostat inputs.\n   ** Warning ** Calculated design cooling load for zone=THERMAL RESTROOM W is zero.\n   **   ~~~   ** Check Sizing:Zone and ZoneControl:Thermostat inputs.\n   ** Warning ** Calculated design cooling load for zone=THERMAL SPACE 01 is zero.\n   **   ~~~   ** Check Sizing:Zone and ZoneControl:Thermostat inputs.\n   ** Warning ** Calculated design cooling load for zone=THERMAL STAIRWAY is zero.\n   **   ~~~   ** Check Sizing:Zone and ZoneControl:Thermostat inputs.\n   ** Warning ** Calculated Humidity Ratio invalid (PsyWFnTdpPb)\n   **   ~~~   **  Routine=UpdateZoneSizing, During Sizing, Environment=BERLIN ANN HUM_N 99.6% CONDNS DP=>MCDB, at Simulation time=02/21 24:00 - 24:10\n   **   ~~~   **  Dew-Point= 100.00 Pressure= 100737.73\n   **   ~~~   ** Calculated Humidity Ratio= -92.6317 ... Humidity Ratio set to .00001\n   ************* Beginning Plant Sizing Calculations\n   ** Warning ** Output:Meter: invalid Key Name=\"DISTRICTCOOLING:FACILITY\" - not found.\n   ** Warning ** Output:Meter: invalid Key Name=\"DISTRICTHEATING:FACILITY\" - not found.\n   ** Warning ** Output:Meter:MeterFileOnly requested for \"Electricity:Facility\" (TimeStep), already on \"Output:Meter\". Will report to both eplusout.eso and eplusout.mtr\n   ************* Testing Individual Branch Integrity\n   ************* All Branches passed integrity testing\n   ************* Testing Individual Supply Air Path Integrity\n   ************* All Supply Air Paths passed integrity testing\n   ************* Testing Individual Return Air Path Integrity\n   ************* All Return Air Paths passed integrity testing\n   ************* No node connection errors were found.\n   ************* Beginning Simulation\n   ** Warning ** The resource referenced by LifeCycleCost:UsePriceEscalation= \"U.S. AVG  COMMERCIAL-ELECTRICITY\" has no energy cost. \n   **   ~~~   ** ... It is likely that the wrong resource is used. The resource should match the meter used in Utility:Tariff.\n   ** Warning ** The resource referenced by LifeCycleCost:UsePriceEscalation= \"U.S. AVG  COMMERCIAL-DISTILLATE OIL\" has no energy cost. \n   **   ~~~   ** ... It is likely that the wrong resource is used. The resource should match the meter used in Utility:Tariff.\n   ** Warning ** The resource referenced by LifeCycleCost:UsePriceEscalation= \"U.S. AVG  COMMERCIAL-RESIDUAL OIL\" has no energy cost. \n   **   ~~~   ** ... It is likely that the wrong resource is used. The resource should match the meter used in Utility:Tariff.\n   ** Warning ** The resource referenced by LifeCycleCost:UsePriceEscalation= \"U.S. AVG  COMMERCIAL-NATURAL GAS\" has no energy cost. \n   **   ~~~   ** ... It is likely that the wrong resource is used. The resource should match the meter used in Utility:Tariff.\n   ** Warning ** The resource referenced by LifeCycleCost:UsePriceEscalation= \"U.S. AVG  COMMERCIAL-COAL\" has no energy cost. \n   **   ~~~   ** ... It is likely that the wrong resource is used. The resource should match the meter used in Utility:Tariff.\n   ************* Simulation Error Summary *************\n   ************* There are 21 unused schedules in input.\n   ************* There are 36 unused week schedules in input.\n   ************* There are 89 unused day schedules in input.\n   ************* Use Output:Diagnostics,DisplayUnusedSchedules; to see them.\n   *************\n   ************* ===== Recurring Error Summary =====\n   ************* The following recurring error messages occurred.\n   *************\n   *************  ** Warning ** Entered Humidity Ratio invalid (PsyWFnTdpPb)\n   *************  **   ~~~   **   This error occurred 14 total times;\n   *************  **   ~~~   **   during Warmup 0 times;\n   *************  **   ~~~   **   during Sizing 14 times.\n   *************  **   ~~~   **   Max=-92.631748 []  Min=-92.631748 []\n   *************\n   *************\n   ************* ===== Final Error Summary =====\n   ************* The following error categories occurred.  Consider correcting or noting.\n   ************* Nominally Unused Constructions\n   ************* ..The nominally unused constructions warning is provided to alert you to potential conditions that can cause\n   ************* ..extra time during simulation. Each construction is calculated by the algorithm indicated in the HeatBalanceAlgorithm\n   ************* ..object. You may remove the constructions indicated (when you use the DisplayExtraWarnings option).\n   *************\n   ************* EnergyPlus Warmup Error Summary. During Warmup: 0 Warning; 0 Severe Errors.\n   ************* EnergyPlus Sizing Error Summary. During Sizing: 22 Warning; 0 Severe Errors.\n   ************* EnergyPlus Completed Successfully-- 52 Warning; 0 Severe Errors; Elapsed Time=00hr 00min 32.69sec\n",
   "hash" : "571B3399",
   "seed_file" : "../RKF_31072018_3.osm",
   "started_at" : "20180801T130045Z",
   "steps" : [],
   "updated_at" : "20180801T130133Z",
   "weather_file" : "DEU_Berlin.103840_IWEC.epw"
}
